Version 4
SHEET 1 3424 1604
WIRE -144 16 -208 16
WIRE 0 16 -64 16
WIRE 256 16 128 16
WIRE 592 16 256 16
WIRE 912 16 672 16
WIRE 992 16 912 16
WIRE 1072 16 992 16
WIRE 1184 16 1072 16
WIRE 1360 16 1264 16
WIRE 1440 16 1360 16
WIRE 1520 16 1440 16
WIRE 1600 16 1520 16
WIRE 1792 16 1600 16
WIRE 2128 16 1872 16
WIRE 2160 16 2128 16
WIRE 2192 16 2160 16
WIRE 2288 16 2192 16
WIRE 2320 16 2288 16
WIRE 2416 16 2384 16
WIRE 0 32 0 16
WIRE 64 32 0 32
WIRE 160 48 128 48
WIRE 256 48 256 16
WIRE 912 48 912 16
WIRE 992 48 992 16
WIRE 1072 48 1072 16
WIRE 1360 48 1360 16
WIRE 1440 48 1440 16
WIRE 1520 48 1520 16
WIRE 1600 48 1600 16
WIRE 2128 96 2128 16
WIRE 2288 96 2288 16
WIRE 2384 112 2336 112
WIRE 2544 112 2384 112
WIRE 160 128 160 48
WIRE 256 128 256 112
WIRE 256 128 160 128
WIRE 2192 128 2192 16
WIRE 2544 128 2544 112
WIRE 912 144 912 112
WIRE 992 144 992 112
WIRE 992 144 912 144
WIRE 1072 144 1072 112
WIRE 1072 144 992 144
WIRE 1360 144 1360 112
WIRE 1440 144 1440 112
WIRE 1440 144 1360 144
WIRE 1520 144 1520 112
WIRE 1520 144 1440 144
WIRE 1600 144 1600 112
WIRE 1600 144 1520 144
WIRE 2448 160 2336 160
WIRE 992 176 992 144
WIRE 1440 176 1440 144
WIRE 2000 224 1776 224
WIRE 2128 224 2128 160
WIRE 2128 224 2080 224
WIRE 2192 224 2192 192
WIRE 2192 224 2128 224
WIRE 2288 224 2288 176
WIRE 2288 224 2192 224
WIRE 2192 240 2192 224
WIRE -208 256 -208 16
WIRE 2128 256 2128 224
WIRE 2288 256 2288 224
WIRE 0 272 0 32
WIRE 160 272 160 128
WIRE 1440 272 1440 256
WIRE 1440 272 1360 272
WIRE 1520 272 1440 272
WIRE 2384 272 2384 112
WIRE 2384 272 2336 272
WIRE 1776 288 1776 224
WIRE 992 304 992 256
WIRE 1360 304 1360 272
WIRE 1440 304 1440 272
WIRE 1520 304 1520 272
WIRE 2448 320 2448 160
WIRE 2448 320 2336 320
WIRE 2544 320 2544 208
WIRE 2544 320 2448 320
WIRE 2544 352 2544 320
WIRE 0 384 0 336
WIRE 160 384 160 352
WIRE 160 384 0 384
WIRE 2128 384 2128 320
WIRE 2192 384 2192 304
WIRE 2192 384 2128 384
WIRE 2288 384 2288 336
WIRE 2288 384 2192 384
WIRE 1776 416 1776 368
WIRE 2288 416 2288 384
WIRE -208 432 -208 336
WIRE 0 432 0 384
WIRE 992 432 992 384
WIRE 1360 432 1360 384
WIRE 1440 432 1440 384
WIRE 1520 432 1520 384
FLAG -208 432 0
FLAG 1440 432 0
FLAG 992 432 0
FLAG 2160 16 vcc_power
FLAG 1360 432 0
FLAG 1520 432 0
FLAG 2544 352 0
FLAG 2288 416 0
FLAG 1776 416 0
FLAG 2416 16 0
FLAG 0 432 0
SYMBOL res 144 256 R0
SYMATTR InstName R1
SYMATTR Value 10k
SYMBOL cap -16 272 R0
SYMATTR InstName C1
SYMATTR Value 100n
SYMBOL zener 272 112 R180
WINDOW 0 24 64 Left 2
WINDOW 3 24 0 Left 2
SYMATTR InstName D1
SYMATTR Value BZX84C10L
SYMATTR Description Diode
SYMATTR Type diode
SYMBOL voltage -208 240 R0
WINDOW 123 24 124 Left 2
WINDOW 39 0 0 Left 2
SYMATTR InstName V1
SYMATTR Value -24
SYMBOL ind 1168 32 R270
WINDOW 0 32 56 VTop 2
WINDOW 3 5 56 VBottom 2
SYMATTR InstName L1
SYMATTR Value 47µ
SYMATTR SpiceLine Ipk=3.5 Rser=0.1089 Rpar=100k Cpar=0
SYMBOL res 976 288 R0
SYMATTR InstName R2
SYMATTR Value 1
SYMBOL res 1424 288 R0
SYMATTR InstName R3
SYMATTR Value 1
SYMBOL ind 576 32 R270
WINDOW 0 32 56 VTop 2
WINDOW 3 5 56 VBottom 2
SYMATTR InstName L2
SYMATTR Value 100n
SYMBOL ind 976 160 R0
SYMATTR InstName L3
SYMATTR Value 5n
SYMBOL ind 1424 160 R0
SYMATTR InstName L4
SYMATTR Value 5n
SYMBOL ind 1776 32 R270
WINDOW 0 32 56 VTop 2
WINDOW 3 5 56 VBottom 2
SYMATTR InstName L5
SYMATTR Value 100n
SYMBOL polcap 896 48 R0
WINDOW 3 24 56 Left 2
SYMATTR Value 33µ
SYMATTR InstName C2
SYMATTR Description Capacitor
SYMATTR Type cap
SYMATTR SpiceLine V=35 Irms=225m Rser=0.49 Lser=0 mfg="Nichicon" pn="UPL1V330MPH" type="Al electrolytic"
SYMBOL polcap 976 48 R0
WINDOW 3 24 56 Left 2
SYMATTR Value 33µ
SYMATTR InstName C3
SYMATTR Description Capacitor
SYMATTR Type cap
SYMATTR SpiceLine V=35 Irms=225m Rser=0.49 Lser=0 mfg="Nichicon" pn="UPL1V330MPH" type="Al electrolytic"
SYMBOL polcap 1056 48 R0
WINDOW 3 24 56 Left 2
SYMATTR Value 33µ
SYMATTR InstName C4
SYMATTR Description Capacitor
SYMATTR Type cap
SYMATTR SpiceLine V=35 Irms=225m Rser=0.49 Lser=0 mfg="Nichicon" pn="UPL1V330MPH" type="Al electrolytic"
SYMBOL polcap 1344 48 R0
WINDOW 3 24 56 Left 2
SYMATTR Value 220µ
SYMATTR InstName C5
SYMATTR Description Capacitor
SYMATTR Type cap
SYMATTR SpiceLine V=35 Irms=795m Rser=0.085 Lser=0 mfg="Nichicon" pn="UPL1V221MPH" type="Al electrolytic"
SYMBOL res 1344 288 R0
SYMATTR InstName R4
SYMATTR Value 1
SYMBOL res 1504 288 R0
SYMATTR InstName R5
SYMATTR Value 1
SYMBOL polcap 1424 48 R0
WINDOW 3 24 56 Left 2
SYMATTR Value 220µ
SYMATTR InstName C6
SYMATTR Description Capacitor
SYMATTR Type cap
SYMATTR SpiceLine V=35 Irms=795m Rser=0.085 Lser=0 mfg="Nichicon" pn="UPL1V221MPH" type="Al electrolytic"
SYMBOL polcap 1504 48 R0
WINDOW 3 24 56 Left 2
SYMATTR Value 220µ
SYMATTR InstName C7
SYMATTR Description Capacitor
SYMATTR Type cap
SYMATTR SpiceLine V=35 Irms=795m Rser=0.085 Lser=0 mfg="Nichicon" pn="UPL1V221MPH" type="Al electrolytic"
SYMBOL polcap 1584 48 R0
WINDOW 3 24 56 Left 2
SYMATTR Value 220µ
SYMATTR InstName C8
SYMATTR Description Capacitor
SYMATTR Type cap
SYMATTR SpiceLine V=35 Irms=795m Rser=0.085 Lser=0 mfg="Nichicon" pn="UPL1V221MPH" type="Al electrolytic"
SYMBOL sw 2288 192 R180
SYMATTR InstName S1
SYMATTR Value myswitch
SYMBOL sw 2288 240 M0
SYMATTR InstName S2
SYMATTR Value myswitch
SYMBOL voltage 2544 112 R0
WINDOW 123 0 0 Left 2
WINDOW 39 0 0 Left 2
SYMATTR InstName V2
SYMATTR Value PULSE(0 1 0 0 0 20u 40u)
SYMBOL res 1760 272 R0
SYMATTR InstName R6
SYMATTR Value 24
SYMBOL schottky 2144 160 R180
WINDOW 0 24 64 Left 2
WINDOW 3 24 0 Left 2
SYMATTR InstName D2
SYMATTR Value MBRS340
SYMATTR Description Diode
SYMATTR Type diode
SYMBOL schottky 2144 320 R180
WINDOW 0 24 64 Left 2
WINDOW 3 24 0 Left 2
SYMATTR InstName D3
SYMATTR Value MBRS340
SYMATTR Description Diode
SYMATTR Type diode
SYMBOL ind 1984 240 R270
WINDOW 0 32 56 VTop 2
WINDOW 3 5 56 VBottom 2
SYMATTR InstName L6
SYMATTR Value 100n
SYMBOL cap 2384 0 R90
WINDOW 0 0 32 VBottom 2
WINDOW 3 32 32 VTop 2
SYMATTR InstName C9
SYMATTR Value 100n
SYMBOL cap 2176 128 R0
SYMATTR InstName C10
SYMATTR Value 220n
SYMBOL cap 2176 240 R0
SYMATTR InstName C11
SYMATTR Value 220n
SYMBOL AutoGenerated\\irf5305 96 32 M180
SYMATTR InstName U1
SYMBOL ind -160 32 R270
WINDOW 0 32 56 VTop 2
WINDOW 3 5 56 VBottom 2
SYMATTR InstName L7
SYMATTR Value 100n
TEXT -472 360 Left 2 !;ac oct 100 10 100k
TEXT -472 312 Left 2 !.tran 10m
TEXT 2640 40 Left 2 !.model myswitch SW(Ron=0.01 Roff=12MEG Vt=0.5 Lser=50n Vser=0)
